/*--------------------------------*- C++ -*----------------------------------*\
| =========                 |                                                 |
| \\      /  F ield         | OpenFOAM: The Open Source CFD Toolbox           |
|  \\    /   O peration     | Version:  v2212                                 |
|   \\  /    A nd           | Website:  www.openfoam.com                      |
|    \\/     M anipulation  |                                                 |
\*---------------------------------------------------------------------------*/
FoamFile
{
    version     2.0;
    format      ascii;
    class       volScalarField;
    object      nut;
}
// * * * * * * * * * * * * * * * * * * * * * * * * * * * * * * * * * * * * * //

dimensions      [m^2 s^-1];

internalField   uniform 0; // All eddy viscosity values can be left at 0 since they will be calculated form k and epsilon

boundaryField
{
    inlet
    {
        type            calculated;
        value           uniform 0;
    }

    outlet
    {
        type            calculated;
        value           uniform 0;
    }

    walls
    {
        type            calculated;
        value           uniform 0;
    }

    hub
    {
        type            nutkWallFunction;
        value           uniform 0;
    }

    symY
    {
        type            cyclic;
    }

    symZ
    {
        type            cyclic;
    }

    /* symY
    {
        type            symmetryPlane;
    }

    symZ
    {
        type            symmetryPlane;
    } */
}


// ************************************************************************* //
